Circuit: * C:\users\abbekasagas\Desktop\repos\axis-projekt\analog\condenser_mic_amp.asc

r3: both pins shorted together -- ignoring.
Direct Newton iteration for .op point succeeded.

Date: Mon Apr 24 10:12:39 2023
Total elapsed time: 0.141 seconds.

tnom = 27
temp = 27
method = modified trap
totiter = 2541
traniter = 2522
tranpoints = 1159
accept = 1122
rejected = 37
matrix size = 14
fillins = 2
solver = Normal
Avg thread counts: 1.3/1.6/1.6/1.3
Matrix Compiler1: 708 bytes object code size  0.2/0.2/[0.2]
Matrix Compiler2: 1.11 KB object code size  0.2/0.2/[0.2]

