Circuit: * C:\users\abbekasagas\Desktop\repos\axis-projekt\analog\condenser_mic_amp.asc

Direct Newton iteration for .op point succeeded.

Date: Mon Apr 24 11:00:24 2023
Total elapsed time: 0.122 seconds.

tnom = 27
temp = 27
method = modified trap
totiter = 2709
traniter = 2660
tranpoints = 1195
accept = 1145
rejected = 50
matrix size = 16
fillins = 7
solver = Normal
Avg thread counts: 1.2/1.6/1.6/1.2
Matrix Compiler1: 1.08 KB object code size  0.2/0.3/[0.2]
Matrix Compiler2: off  [0.2]/0.3/0.2

